-------------------------------------------------------
          Amber 22 SANDER                              2022
          -------------------------------------------------------

  [-O]verwriting output

File Assignments:

 Here is the input file:

  &cntrl
    imin=0,
    ntx=1,
    ntwr=100,
    ntpr=10,
    ntwx=10,
    ioutfm=1,
    ntxo=1,
    nstlim=10000,
    dt=0.001,
    ntt=3,
    tempi=300.0,
    temp0=300.0,
    ig=2022,
    gamma_ln=5.0,
    ntp=0,
    ntb=0,
    cut=999.,
    nmropt=1,
  &end
&wt
  type='DUMPFREQ', istep1=1,
&end
&wt
  type="END",
&end
  DISANG=restraints.rst
  DUMPAVE=restraints.dat
END

--------------------------------------------------------------------------------
   1.  RESOURCE   USE:
--------------------------------------------------------------------------------

 NATOM  =      22 NTYPES =       7 NBONH =      12 MBONA  =       9
 NTHETH =      25 MTHETA =      11 NPHIH =      43 MPHIA  =      24
 NHPARM =       0 NPARM  =       0 NNB   =      99 NRES   =       3
 NBONA  =       9 NTHETA =      11 NPHIA =      24 NUMBND =       8
 NUMANG =      16 NPTRA  =      19 NATYP =       7 NPHB   =       0
 IFBOX  =       0 NMXRS  =      10 IFCAP =       0 NEXTRA =       0
 NCOPY  =       0

--------------------------------------------------------------------------------
   2.  CONTROL  DATA  FOR  THE  RUN
--------------------------------------------------------------------------------

ACE

General flags:
     imin    =       0, nmropt  =       1

Nature and format of input:
     ntx     =       1, irest   =       0, ntrx    =       1

Nature and format of output:
     ntxo    =       1, ntpr    =      10, ntrx    =       1, ntwr    =     100
     iwrap   =       0, ntwx    =      10, ntwv    =       0, ntwe    =       0
     ioutfm  =       1, ntwprt  =       0, idecomp =       0, rbornstat=      0

Potential function:
     ntf     =       1, ntb     =       0, igb     =       0, nsnb    =      25
     ipol    =       0, gbsa    =       0, iesp    =       0
     dielc   =   1.00000, cut     = 999.00000, intdiel =   1.00000

Frozen or restrained atoms:
     ibelly  =       0, ntr     =       0

Molecular dynamics:
     nstlim  =     10000, nscm    =      1000, nrespa  =         1
     t       =   0.00000, dt      =   0.00100, vlimit  =  20.00000

Langevin dynamics temperature regulation:
     ig      =    2022
     temp0   = 300.00000, tempi   = 300.00000, gamma_ln=   5.00000

NMR refinement options:
     iscale  =       0, noeskp  =       1, ipnlty  =       1, mxsub   =       1
     scalm   = 100.00000, pencut  =   0.10000, tausw   =   0.10000

--------------------------------------------------------------------------------
   3.  ATOMIC COORDINATES AND VELOCITIES
--------------------------------------------------------------------------------

 FENEB restart, replica:            1
 begin time read from input coords =     0.000 ps

           Begin reading energy term weight changes/NMR restraints
 WEIGHT CHANGES:
 DUMPFREQ      1      0    0.000000    0.000000      0      0
                         ** No weight changes given **

 RESTRAINTS:
 Requested file redirections:
  DISANG    = restraints.rst
  DUMPAVE   = restraints.dat
 Restraints will be read from file: restraints.rst
Here are comments from the DISANG input file:

                       Number of restraints read =     2

                  Done reading weight changes/NMR restraints

 Number of triangulated 3-point waters found:        0

     Sum of charges from parm topology file =  -0.00000000
     Forcing neutrality...

--------------------------------------------------------------------------------
   4.  RESULTS
 NSTEP =        0   TIME(PS) =       0.000  TEMP(K) =   425.26  PRESS =     0.0
 Etot   =        37.0073  EKtot   =        27.8874  EPtot      =         9.1200
 BOND   =        11.4628  ANGLE   =        16.1413  DIHED      =        13.3151
 1-4 NB =         3.8660  1-4 EEL =        46.5096  VDWAALS    =         0.7912
 EELEC  =       -82.9918  EHBOND  =         0.0000  RESTRAINT  =         0.0259
 EAMBER (non-restraint)  =         9.0941
 ------------------------------------------------------------------------------

      A V E R A G E S   O V E R   10000 S T E P S

 NSTEP =    10000   TIME(PS) =      10.000  TEMP(K) =   312.88  PRESS =     0.0
 Etot   =        17.5008  EKtot   =        20.5181  EPtot      =        -3.0173
 BOND   =         7.5495  ANGLE   =         9.2119  DIHED      =        12.7682
 1-4 NB =         3.2546  1-4 EEL =        45.6374  VDWAALS    =        -0.4491
 EELEC  =       -81.5269  EHBOND  =         0.0000  RESTRAINT  =         0.5370
 EAMBER (non-restraint)  =        -3.5542
 ------------------------------------------------------------------------------

      R M S  F L U C T U A T I O N S

 NSTEP =    10000   TIME(PS) =      10.000  TEMP(K) =    58.94  PRESS =     0.0
 Etot   =         5.7395  EKtot   =         3.8649  EPtot      =         3.6015
 BOND   =         2.3688  ANGLE   =         2.4071  DIHED      =         0.9692
 1-4 NB =         0.6999  1-4 EEL =         1.9000  VDWAALS    =         0.7454
 EELEC  =         1.7042  EHBOND  =         0.0000  RESTRAINT  =         0.5577
 EAMBER (non-restraint)  =         3.0437
 ------------------------------------------------------------------------------
